LTspice 24.1.0 for Windows
Circuit: C:\Users\dosanj5\OneDrive - McMaster University\School Files\2024 - 2025\WINTER 2025\ELECENG 2EI4\Project 2\Draft1.net
Start Time: Thu Mar 27 21:07:54 2025
solver = Normal
Maximum thread count: 16
tnom = 27
temp = 27
method = trap
.OP point found by inspection.
Total elapsed time: 0.176 seconds.

Files loaded:
C:\Users\dosanj5\OneDrive - McMaster University\School Files\2024 - 2025\WINTER 2025\ELECENG 2EI4\Project 2\Draft1.net

