LTspice 24.1.0 for Windows
Circuit: C:\Users\dosanj5\OneDrive - McMaster University\School Files\2024 - 2025\WINTER 2025\ELECENG 2EI4\Project 2\Switch 2.net
Start Time: Sun Mar  2 18:16:02 2025
solver = Normal
Maximum thread count: 16
tnom = 27
temp = 27
method = trap
Direct Newton iteration for .op point succeeded.
Total elapsed time: 0.167 seconds.

Files loaded:
C:\Users\dosanj5\OneDrive - McMaster University\School Files\2024 - 2025\WINTER 2025\ELECENG 2EI4\Project 2\Switch 2.net
C:\Users\dosanj5\AppData\Local\LTspice\lib\cmp\standard.mos

