LTspice 24.1.0 for Windows
Circuit: C:\Users\dosanj5\OneDrive - McMaster University\School Files\2024 - 2025\WINTER 2025\ELECENG 2EI4\Project 2\Switch 1.net
Start Time: Sat Mar  1 21:07:25 2025
solver = Normal
Maximum thread count: 16
tnom = 27
temp = 27
method = trap
Direct Newton iteration for .op point succeeded.
Total elapsed time: 0.097 seconds.

Files loaded:
C:\Users\dosanj5\OneDrive - McMaster University\School Files\2024 - 2025\WINTER 2025\ELECENG 2EI4\Project 2\Switch 1.net
C:\Users\dosanj5\AppData\Local\LTspice\lib\cmp\standard.mos

