
**** 02/10/25 15:17:34 *** PSpice 24.1.0 (4 September 2024) *** ID# 0 ********

 ** Profile: "SCHEMATIC1-Project 1"  [ c:\users\dosanj5\onedrive - mcmaster university\school files\2024 - 2025\winter 2025\eleceng 2


 ****     CIRCUIT DESCRIPTION


******************************************************************************




** Creating circuit file "Project 1.cir" 
** WARNING: THIS AUTOMATICALLY GENERATED FILE MAY BE OVERWRITTEN BY SUBSEQUENT SIMULATIONS

*Libraries: 
* Profile Libraries :
* Local Libraries :
* From [PSPICE NETLIST] section of C:\Users\dosanj5\AppData\Roaming\SPB_Data\cdssetup\OrCAD_PSpice\24.1.0\PSpice.ini file:
.lib "nom.lib" 

*Analysis directives: 
.TRAN  0 10ms 0 
.OPTIONS ADVCONV
.PROBE64 V(alias(*)) I(alias(*)) W(alias(*)) D(alias(*)) NOISE(alias(*)) 
.INC "..\SCHEMATIC1.net" 



**** INCLUDING SCHEMATIC1.net ****
* source PROJECT 1
D_D1         N00101 N00108 D1N4148 
V_V1         N00101 0  AC 3.8
+SIN 0 3.9 1kHz 0 0 0
C_C1         0 N00108  25u  TC=0,0 
R_R1         0 N00108  300 TC=0,0 
D_D2         N00512 N00108 D1N4148 
V_V2         N00512 0  AC -3.9
+SIN 0 -3.9 1kHz 0 0 0

**** RESUMING "Project 1.cir" ****
.END

**** 02/10/25 15:17:34 *** PSpice 24.1.0 (4 September 2024) *** ID# 0 ********

 ** Profile: "SCHEMATIC1-Project 1"  [ c:\users\dosanj5\onedrive - mcmaster university\school files\2024 - 2025\winter 2025\eleceng 2


 ****     Diode MODEL PARAMETERS


******************************************************************************




               D1N4148         
          IS    2.682000E-09 
           N    1.836        
         ISR    1.565000E-09 
         IKF     .04417      
          BV  100            
         IBV  100.000000E-06 
          RS     .5664       
          TT   11.540000E-09 
         CJO    4.000000E-12 
          VJ     .5          
           M     .3333       


**** 02/10/25 15:17:34 *** PSpice 24.1.0 (4 September 2024) *** ID# 0 ********

 ** Profile: "SCHEMATIC1-Project 1"  [ c:\users\dosanj5\onedrive - mcmaster university\school files\2024 - 2025\winter 2025\eleceng 2


 ****     INITIAL TRANSIENT SOLUTION       TEMPERATURE =   27.000 DEG C


******************************************************************************



 NODE   VOLTAGE     NODE   VOLTAGE     NODE   VOLTAGE     NODE   VOLTAGE


(N00101)    0.0000 (N00108)-1.360E-21 (N00512)    0.0000 




    VOLTAGE SOURCE CURRENTS
    NAME         CURRENT

    V_V1         2.266E-24
    V_V2         2.266E-24

    TOTAL POWER DISSIPATION   0.00E+00  WATTS



          JOB CONCLUDED

**** 02/10/25 15:17:34 *** PSpice 24.1.0 (4 September 2024) *** ID# 0 ********

 ** Profile: "SCHEMATIC1-Project 1"  [ c:\users\dosanj5\onedrive - mcmaster university\school files\2024 - 2025\winter 2025\eleceng 2


 ****     JOB STATISTICS SUMMARY


******************************************************************************



  Total job time (using Solver 1)   =         .06
